Version 4
SHEET 1 2148 1392
WIRE 64 144 -96 144
WIRE 224 144 144 144
WIRE 256 144 224 144
WIRE 368 144 256 144
WIRE 464 144 448 144
WIRE 256 192 256 144
WIRE 384 240 336 240
WIRE 464 240 464 144
WIRE 464 240 384 240
WIRE 256 304 256 288
WIRE 256 304 176 304
WIRE 256 320 256 304
WIRE 464 336 464 240
WIRE 336 368 336 240
WIRE 560 384 528 384
WIRE 640 384 560 384
WIRE 768 384 720 384
WIRE -96 496 -96 144
WIRE -96 496 -208 496
WIRE -16 496 -96 496
WIRE 176 496 176 304
WIRE 176 496 144 496
WIRE 256 496 256 416
WIRE 256 496 176 496
WIRE 272 496 256 496
WIRE 320 496 272 496
WIRE 768 512 768 464
WIRE -208 528 -208 496
WIRE -96 864 -96 496
WIRE -80 864 -96 864
WIRE 32 864 0 864
WIRE 64 864 32 864
WIRE 176 864 144 864
WIRE 208 864 176 864
WIRE 320 864 320 496
WIRE 320 864 288 864
WIRE 32 1008 32 864
WIRE 80 1008 32 1008
WIRE 176 1008 176 864
WIRE 176 1008 144 1008
FLAG 464 512 0
FLAG 768 512 0
FLAG 384 240 Pctrl1
FLAG 560 384 n1
FLAG -208 528 0
FLAG 176 864 tc+
FLAG 32 864 tc-
FLAG 272 496 vsense+
FLAG 224 144 V19
SYMBOL voltage 160 144 R90
WINDOW 3 32 56 VTop 2
WINDOW 0 -32 56 VBottom 2
SYMATTR Value 19
SYMATTR InstName V1
SYMBOL res 80 480 R90
WINDOW 0 0 56 VBottom 2
WINDOW 3 32 56 VTop 2
SYMATTR InstName R1
SYMATTR Value 8
SYMBOL res 464 128 R90
WINDOW 0 0 56 VBottom 2
WINDOW 3 32 56 VTop 2
SYMATTR InstName R2
SYMATTR Value 1k
SYMBOL npn 528 336 M0
SYMATTR InstName Q1
SYMBOL res 736 368 R90
WINDOW 0 0 56 VBottom 2
WINDOW 3 32 56 VTop 2
SYMATTR InstName R3
SYMATTR Value 1K
SYMBOL voltage 768 368 R0
SYMATTR InstName V2
SYMATTR Value PULSE(0 3.3 0.5m 1u 1u 1m 3m)
SYMBOL voltage 160 496 R90
WINDOW 0 -32 56 VBottom 2
WINDOW 3 32 56 VTop 2
SYMATTR InstName V3
SYMATTR Value 9m
SYMBOL res 160 848 R90
WINDOW 0 0 56 VBottom 2
WINDOW 3 32 56 VTop 2
SYMATTR InstName R4
SYMATTR Value 60K
SYMBOL res -96 880 R270
WINDOW 0 32 56 VTop 2
WINDOW 3 0 56 VBottom 2
SYMATTR InstName R5
SYMATTR Value 1K
SYMBOL res 192 880 R270
WINDOW 0 32 56 VTop 2
WINDOW 3 0 56 VBottom 2
SYMATTR InstName R6
SYMATTR Value 1K
SYMBOL Mosfet/ST/Pmos_ST 256 240 M0
SYMATTR InstName U4
SYMBOL Mosfet/ST/Pmos_ST 256 368 R180
SYMATTR InstName U2
SYMBOL res 480 528 R180
WINDOW 0 36 76 Left 2
WINDOW 3 36 40 Left 2
SYMATTR InstName R8
SYMATTR Value .29K
SYMBOL zener 80 1024 R270
WINDOW 0 36 32 VTop 2
WINDOW 3 -4 32 VBottom 2
SYMATTR InstName D1
SYMATTR Value 1N750
TEXT -312 -96 Left 2 !.tran .001 .015
