Version 4
SHEET 1 900 680
WIRE -16 96 -16 80
WIRE 176 224 80 224
WIRE 272 224 272 80
WIRE 272 224 256 224
WIRE 384 224 272 224
WIRE 528 224 464 224
WIRE 624 224 528 224
WIRE 528 256 528 224
WIRE 624 256 624 224
WIRE 80 304 80 224
WIRE 624 352 624 336
WIRE 528 368 528 320
WIRE -16 496 -16 176
WIRE 80 496 80 384
WIRE 80 496 -16 496
WIRE 336 496 80 496
WIRE 384 496 336 496
WIRE 512 496 464 496
WIRE 624 496 624 352
WIRE 624 496 512 496
WIRE 336 576 336 560
WIRE 512 576 512 496
FLAG 512 576 0
FLAG 528 368 0
FLAG 624 256 TC+
FLAG 624 352 TC0
FLAG 624 224 TC1
FLAG 336 576 0
SYMBOL res 608 240 R0
SYMATTR InstName READER
SYMATTR Value 69k
SYMBOL Res 272 208 R90
WINDOW 0 0 56 VBottom 2
WINDOW 3 32 56 VTop 2
SYMATTR InstName R3
SYMATTR Value 10
SYMBOL Res 480 208 R90
WINDOW 0 0 56 VBottom 2
WINDOW 3 32 56 VTop 2
SYMATTR InstName R5
SYMATTR Value 1K
SYMBOL Res 480 480 R90
WINDOW 0 0 56 VBottom 2
WINDOW 3 32 56 VTop 2
SYMATTR InstName R6
SYMATTR Value 1K
SYMBOL voltage 80 288 R0
SYMATTR InstName TC
SYMATTR Value PULSE(0 0.015 0 0.005 0.005 0.01 0.04)
SYMBOL voltage -16 80 R0
SYMATTR InstName V1
SYMATTR Value SINE(0 35 60 0.033)
SYMBOL ZENER/Zener_DiodesInc 544 320 R180
SYMATTR InstName U1
SYMBOL cap 320 496 R0
SYMATTR InstName C1
SYMATTR Value 10n
TEXT 408 120 Left 2 !.tran .15
