Version 4
SHEET 1 2148 1392
WIRE -624 -96 -672 -96
WIRE -480 -96 -544 -96
WIRE 784 0 640 0
WIRE -672 16 -672 -96
WIRE -480 16 -480 -96
WIRE 784 16 784 0
WIRE 784 32 784 16
WIRE 640 48 640 0
WIRE 784 144 784 112
WIRE -1120 160 -1216 160
WIRE -928 160 -1120 160
WIRE -832 160 -928 160
WIRE -752 160 -832 160
WIRE -672 160 -752 160
WIRE -560 160 -672 160
WIRE -352 160 -480 160
WIRE -96 160 -352 160
WIRE 144 160 -96 160
WIRE 640 192 640 128
WIRE 864 192 640 192
WIRE 896 192 864 192
WIRE 144 208 144 160
WIRE 144 208 112 208
WIRE 176 208 144 208
WIRE -832 224 -832 160
WIRE -752 224 -752 160
WIRE -672 224 -672 160
WIRE -96 224 -96 160
WIRE 640 224 640 192
WIRE -96 240 -96 224
WIRE -352 256 -352 160
WIRE -1216 272 -1216 160
WIRE 48 272 48 208
WIRE 48 272 0 272
WIRE 240 272 240 208
WIRE 320 272 240 272
WIRE 384 272 320 272
WIRE 512 272 464 272
WIRE 576 272 512 272
WIRE -928 288 -928 160
WIRE 0 304 0 272
WIRE -1120 320 -1120 160
WIRE 512 320 512 272
WIRE 48 336 48 272
WIRE 144 336 112 336
WIRE 176 336 144 336
WIRE 240 336 240 272
WIRE -832 368 -832 288
WIRE -752 368 -752 288
WIRE -672 368 -672 288
WIRE 640 368 640 320
WIRE -352 384 -352 336
WIRE -96 400 -96 304
WIRE 144 400 144 336
WIRE 144 400 -96 400
WIRE 512 528 448 528
WIRE -928 576 -928 368
WIRE -96 576 -96 400
WIRE 144 576 -48 576
WIRE 368 576 304 576
WIRE 448 576 448 528
WIRE -1216 592 -1216 352
WIRE -1120 592 -1120 384
WIRE -1120 592 -1216 592
WIRE -928 592 -928 576
WIRE -928 592 -1120 592
WIRE -768 592 -928 592
WIRE -560 592 -768 592
WIRE -352 592 -352 464
WIRE -352 592 -480 592
WIRE 512 592 512 528
WIRE 688 624 688 528
WIRE -96 656 -96 640
WIRE -64 656 -96 656
WIRE 80 656 16 656
WIRE 144 656 80 656
WIRE 352 656 304 656
WIRE -768 688 -768 592
WIRE 80 688 80 656
WIRE -352 704 -352 592
WIRE -96 704 -96 656
WIRE -96 704 -352 704
WIRE 352 736 352 656
WIRE 512 736 512 672
WIRE 688 736 688 704
WIRE 16 784 16 768
WIRE 80 784 80 752
WIRE 80 784 16 784
WIRE -352 816 -352 704
WIRE -64 816 -64 768
WIRE 80 816 -64 816
WIRE 80 848 80 816
FLAG 320 272 Vout
FLAG 0 304 0
FLAG 512 736 0
FLAG 352 736 0
FLAG 688 736 0
FLAG 784 144 0
FLAG 640 368 0
FLAG 864 192 pulse
FLAG 512 400 0
FLAG -752 368 COM
FLAG -672 368 COM
FLAG -928 160 tc1
FLAG -928 576 tc0
FLAG 784 16 5v
FLAG 80 848 COM
FLAG -480 16 0
FLAG -672 16 COM
FLAG -352 816 COM
FLAG -832 368 COM
FLAG -768 688 COM
SYMBOL Diode 48 224 R270
WINDOW 0 32 32 VTop 2
WINDOW 3 0 32 VBottom 2
SYMATTR InstName D1
SYMBOL Diode 176 224 R270
WINDOW 0 32 32 VTop 2
WINDOW 3 0 32 VBottom 2
SYMATTR InstName D2
SYMBOL Diode 48 352 R270
WINDOW 0 32 32 VTop 2
WINDOW 3 0 32 VBottom 2
SYMATTR InstName D3
SYMBOL Diode 176 352 R270
WINDOW 0 32 32 VTop 2
WINDOW 3 0 32 VBottom 2
SYMATTR InstName D4
SYMBOL voltage -96 208 R0
WINDOW 3 281 96 Invisible 2
SYMATTR Value SINE(0 34 60 0 0 0)
SYMATTR InstName V1
SYMBOL voltage 512 576 R0
WINDOW 3 24 38 Left 2
WINDOW 123 0 0 Left 0
SYMATTR Value PULSE(0 5 0.033 0.0001 0.0001 0.002 .3333)
SYMATTR InstName V3
SYMBOL res 32 640 R90
WINDOW 0 0 56 VBottom 2
WINDOW 3 32 56 VTop 2
SYMATTR InstName R3
SYMATTR Value 100
SYMBOL res -368 368 R0
SYMATTR InstName R4
SYMATTR Value 8
SYMBOL Triac/TRIAC_ST_SnubbLess -64 640 R180
SYMATTR InstName U2
SYMBOL Optos/MOC3021 256 592 M0
SYMATTR InstName U3
SYMBOL Res 464 560 R90
WINDOW 0 0 56 VBottom 2
WINDOW 3 32 56 VTop 2
SYMATTR InstName R6
SYMATTR Value 330
SYMBOL cap 64 688 R0
SYMATTR InstName C1
SYMATTR Value 1n
SYMBOL bv 688 608 R0
SYMATTR InstName B1
SYMATTR Value V=IF(V(pulse)>4.5, 5, 0)
SYMBOL voltage 784 16 R0
SYMATTR InstName V4
SYMATTR Value 5
SYMBOL npn 576 224 R0
SYMATTR InstName Q1
SYMBOL res 624 32 R0
SYMATTR InstName R8
SYMATTR Value 47K
SYMBOL res 480 256 R90
WINDOW 0 0 56 VBottom 2
WINDOW 3 32 56 VTop 2
SYMATTR InstName R7
SYMATTR Value 22k
SYMBOL res 496 304 R0
SYMATTR InstName R5
SYMATTR Value 4.7K
SYMBOL voltage -352 240 R0
SYMATTR InstName TC_signal
SYMATTR Value 9.9m
SYMBOL res -464 144 R90
WINDOW 0 0 56 VBottom 2
WINDOW 3 32 56 VTop 2
SYMATTR InstName R1
SYMATTR Value 2.2K
SYMBOL res -464 576 R90
WINDOW 0 0 56 VBottom 2
WINDOW 3 32 56 VTop 2
SYMATTR InstName R2
SYMATTR Value 1K
SYMBOL res -912 384 R180
WINDOW 0 36 76 Left 2
WINDOW 3 36 40 Left 2
SYMATTR InstName MAX6675
SYMATTR Value 60K
SYMBOL ZENER/Zener_DiodesInc -736 288 R180
SYMATTR InstName U1
SYMBOL cap -688 224 R0
WINDOW 3 23 56 Left 2
SYMATTR Value 100n
SYMATTR InstName C2
SYMBOL ZENER/Zener_DiodesInc -848 224 R0
SYMATTR InstName U4
SYMBOL res -528 -112 R90
WINDOW 0 0 56 VBottom 2
WINDOW 3 32 56 VTop 2
SYMATTR InstName R9
SYMATTR Value 1Meg
SYMBOL cap -1136 320 R0
SYMATTR InstName C4
SYMATTR Value 100n
SYMBOL res -1232 256 R0
SYMATTR InstName R10
SYMATTR Value 75K
SYMBOL res 32 752 R90
WINDOW 0 0 56 VBottom 2
WINDOW 3 32 56 VTop 2
SYMATTR InstName R11
SYMATTR Value 1K
TEXT -312 -96 Left 2 !.tran .05
